Version 4
SHEET 1 2460 728
WIRE 32 -128 -64 -128
WIRE -64 -112 -64 -128
WIRE 32 -48 32 -128
WIRE -64 0 -64 -32
WIRE 368 96 304 96
WIRE 384 96 368 96
WIRE 32 112 32 32
WIRE 64 112 32 112
WIRE 96 112 64 112
WIRE 384 112 384 96
WIRE -144 144 -272 144
WIRE -80 144 -144 144
WIRE 64 144 0 144
WIRE 96 144 64 144
WIRE 448 160 304 160
WIRE -272 176 -272 144
WIRE -144 208 -144 144
WIRE 448 208 448 160
WIRE -272 320 -272 256
WIRE -144 320 -144 288
WIRE 448 320 448 288
FLAG 384 112 0
FLAG -64 0 0
FLAG -144 320 0
FLAG 448 320 0
FLAG -272 320 0
FLAG 64 112 Drain
FLAG 368 96 Source
FLAG 64 144 Gate
SYMBOL AutoGenerated\\BSS806N 192 128 R0
WINDOW 39 31 95 Top 0
SYMATTR InstName U1
SYMBOL res 16 -64 R0
SYMATTR InstName R1
SYMATTR Value 62
SYMBOL res -160 192 R0
SYMATTR InstName R2
SYMATTR Value 1Meg
SYMBOL res 16 128 R90
WINDOW 0 0 56 VBottom 2
WINDOW 3 32 56 VTop 2
SYMATTR InstName R3
SYMATTR Value 10
SYMBOL voltage 448 192 R0
WINDOW 123 0 0 Left 0
WINDOW 39 0 0 Left 0
SYMATTR InstName V1
SYMATTR Value 25
SYMBOL voltage -64 -128 R0
WINDOW 123 0 0 Left 0
WINDOW 39 0 0 Left 0
SYMATTR InstName V2
SYMATTR Value 1.85
SYMBOL voltage -272 160 R0
WINDOW 3 -181 -54 Left 2
WINDOW 123 0 0 Left 0
WINDOW 39 0 0 Left 0
SYMATTR Value PULSE(0 3.3 1 1u 1u 1 2 4)
SYMATTR InstName V3
TEXT -304 344 Left 2 !.tran 3
TEXT -416 432 Left 2 ;Please reference the OptiMOS2 ReadMe.pdf located in the NMOS_BSS806N folder which\nis located in the same directory as this LTspice model for more information about how to\nconfigure the Tj and Tcase pins on this NMOS. From the pdf: \n \n"The second thermal pin is Tcase (in TO packages),Tsolder_joint (in small \nsignal packages like SO, SOT) or Tpad (in die models). This pin has to\nbe connected. An external resistor-capacitor-network can be added between the Tcase pin\nand ground. The right-hand-side terminal of the heatsink RC-network has to be connected to\na voltage source which represents the ambient temperature (Fig. 1). On the other hand,\nconnecting the ambient temperature source directly to the Tcase pin leads to a network\nwhere optimum heat transfer is modelled (Fig. 2)."
