Version 4
SHEET 1 2104 788
WIRE 1568 -496 1456 -496
WIRE 1632 -496 1568 -496
WIRE 1664 -496 1632 -496
WIRE 1456 -480 1456 -496
WIRE 1456 -480 1424 -480
WIRE 1072 -464 1024 -464
WIRE 1120 -464 1072 -464
WIRE 1136 -464 1120 -464
WIRE 1456 -416 1456 -480
WIRE 1456 -416 1424 -416
WIRE 1072 -384 1072 -400
WIRE 1120 -368 1120 -464
WIRE 1136 -368 1120 -368
WIRE 1568 -368 1568 -432
WIRE 1664 -368 1664 -416
WIRE 1456 -352 1424 -352
WIRE -672 -320 -704 -320
WIRE -528 -320 -560 -320
WIRE -400 -320 -432 -320
WIRE -672 -288 -672 -320
WIRE -528 -288 -528 -320
WIRE -400 -288 -400 -320
WIRE 1280 -272 1280 -304
WIRE -704 -256 -704 -320
WIRE -560 -256 -560 -320
WIRE -432 -256 -432 -320
WIRE -704 -144 -704 -176
WIRE -560 -144 -560 -176
WIRE 1584 -144 1472 -144
WIRE 1648 -144 1584 -144
WIRE 1680 -144 1648 -144
WIRE -432 -128 -432 -176
WIRE -16 -128 -80 -128
WIRE 112 -128 64 -128
WIRE 160 -128 112 -128
WIRE 464 -128 224 -128
WIRE 608 -128 464 -128
WIRE 720 -128 608 -128
WIRE 816 -128 720 -128
WIRE 1472 -128 1472 -144
WIRE 1472 -128 1440 -128
WIRE 1072 -112 1024 -112
WIRE 1120 -112 1072 -112
WIRE 1152 -112 1120 -112
WIRE 464 -64 352 -64
WIRE 544 -64 464 -64
WIRE 1472 -64 1472 -128
WIRE 1472 -64 1440 -64
WIRE 720 -48 720 -64
WIRE 112 -32 112 -128
WIRE 544 -32 544 -64
WIRE 608 -32 608 -48
WIRE 608 -32 544 -32
WIRE 1072 -32 1072 -48
WIRE 608 -16 608 -32
WIRE 1120 -16 1120 -112
WIRE 1152 -16 1120 -16
WIRE 1584 -16 1584 -80
WIRE 1680 -16 1680 -64
WIRE 1472 0 1440 0
WIRE -320 32 -384 32
WIRE -128 32 -240 32
WIRE -64 32 -128 32
WIRE 352 32 352 -64
WIRE 352 32 272 32
WIRE 608 80 608 64
WIRE 416 96 272 96
WIRE 560 96 416 96
WIRE -128 112 -128 96
WIRE -128 160 -208 160
WIRE -64 160 -128 160
WIRE 416 160 416 96
WIRE 416 160 272 160
WIRE 560 160 560 96
WIRE 368 224 272 224
WIRE -128 240 -128 224
WIRE 368 240 368 224
WIRE 416 240 416 224
WIRE 416 240 368 240
WIRE 1456 256 1312 256
WIRE 1616 256 1456 256
WIRE 1696 256 1616 256
WIRE 1696 272 1696 256
WIRE -320 288 -384 288
WIRE -128 288 -240 288
WIRE -64 288 -128 288
WIRE 560 288 560 240
WIRE 560 288 272 288
WIRE 688 288 560 288
WIRE 560 304 560 288
WIRE 688 304 688 288
WIRE 1456 304 1456 256
WIRE -128 368 -128 352
WIRE 16 384 16 352
WIRE 1312 384 1312 256
WIRE 1616 416 1616 256
WIRE 64 448 -80 448
WIRE 192 448 192 352
WIRE 192 448 144 448
WIRE 224 448 192 448
WIRE 320 448 288 448
WIRE 416 448 320 448
WIRE 560 448 560 384
WIRE 560 448 496 448
WIRE 688 448 688 368
WIRE 688 448 560 448
WIRE 816 448 688 448
WIRE 992 448 976 448
WIRE 1040 448 992 448
WIRE 1088 448 1040 448
WIRE 1456 448 1456 384
WIRE 1456 448 1376 448
WIRE 992 480 992 448
WIRE 688 496 688 448
WIRE 320 528 320 512
WIRE 1456 528 1456 448
WIRE 1040 544 1040 448
WIRE 1088 544 1040 544
WIRE 992 560 992 544
WIRE 688 576 688 560
WIRE 1040 640 1040 544
WIRE 1088 640 1040 640
WIRE 1456 640 1456 608
WIRE 1456 640 1376 640
WIRE 1616 640 1616 480
WIRE 1616 640 1456 640
WIRE 1760 640 1616 640
WIRE 1776 640 1760 640
WIRE 1776 672 1776 640
WIRE 1776 768 1776 752
FLAG 416 240 0
FLAG 608 80 0
FLAG 720 -48 0
FLAG 16 384 0
FLAG 688 576 0
FLAG 320 528 0
FLAG -128 112 0
FLAG -128 240 0
FLAG -128 368 0
FLAG -672 -288 0
FLAG -704 -144 Vin
FLAG 816 -128 Vout
FLAG 816 448 -Vout
FLAG -192 272 1.6Amax
FLAG -192 16 1.6Amax
FLAG -528 -288 0
FLAG -560 -144 Ven
FLAG -128 32 1
FLAG -128 160 2
FLAG -128 288 3
FLAG 112 -128 4
FLAG 464 -128 5
FLAG 464 -64 6
FLAG 608 -32 7
FLAG 416 96 8
FLAG 560 288 9
FLAG 192 448 10
FLAG 320 448 11
FLAG 688 448 12
FLAG 1696 272 0
FLAG 976 448 -Vout
FLAG 1760 640 -5out
FLAG 992 560 0
FLAG -400 -288 0
FLAG -432 -128 noise
FLAG -384 32 noise
FLAG -384 288 noise
FLAG 1776 768 0
FLAG -80 -128 noise
FLAG -80 448 noise
FLAG 1664 -368 0
FLAG 1632 -496 5V
FLAG 1072 -384 0
FLAG 1024 -464 Vout
FLAG -208 160 noise
FLAG 1568 -368 0
FLAG 1280 -272 0
FLAG 1072 -32 0
FLAG 1024 -112 Vout
FLAG 1680 -16 0
FLAG 1648 -144 5V
FLAG 1584 -16 0
SYMBOL PowerProducts\\LT3471 112 160 R0
SYMATTR InstName U1
SYMBOL ind -32 -112 R270
WINDOW 0 32 56 VTop 2
WINDOW 3 5 56 VBottom 2
SYMATTR InstName L1
SYMATTR Value 2.2µH
SYMATTR SpiceLine Rser=0.016
SYMBOL res 592 -144 R0
SYMATTR InstName R1
SYMATTR Value 90900
SYMATTR SpiceLine tol=0.5 pwr=0.1
SYMBOL res 592 -32 R0
SYMATTR InstName R2
SYMATTR Value 15000
SYMATTR SpiceLine tol=1 pwr=0.25
SYMBOL cap 704 -128 R0
SYMATTR InstName C2
SYMATTR Value 4.7µF
SYMATTR SpiceLine V=35
SYMBOL cap 400 160 R0
SYMATTR InstName C3
SYMATTR Value 0.1µF
SYMATTR SpiceLine V=50
SYMBOL res 544 144 R0
SYMATTR InstName R3
SYMATTR Value 15000
SYMATTR SpiceLine tol=0.5 pwr=0.1
SYMBOL res 544 288 R0
SYMATTR InstName R4
SYMATTR Value 105000
SYMATTR SpiceLine tol=0.5 pwr=0.1
SYMBOL cap 672 304 R0
SYMATTR InstName C4
SYMATTR Value 68pF
SYMATTR SpiceLine V=50
SYMBOL cap 672 496 R0
SYMATTR InstName C5
SYMATTR Value 10µF
SYMATTR SpiceLine V=25
SYMBOL ind 400 464 R270
WINDOW 0 32 56 VTop 2
WINDOW 3 5 56 VBottom 2
SYMATTR InstName L2
SYMATTR Value 15µH
SYMATTR SpiceLine Rser=0.143
SYMBOL ind 48 464 R270
WINDOW 0 32 56 VTop 2
WINDOW 3 5 56 VBottom 2
SYMATTR InstName L3
SYMATTR Value 10µH
SYMATTR SpiceLine Rser=0.0793
SYMBOL cap 224 464 R270
WINDOW 0 32 32 VTop 2
WINDOW 3 0 32 VBottom 2
SYMATTR InstName C6
SYMATTR Value 0.9µF
SYMATTR SpiceLine V=35
SYMBOL res -224 16 R90
WINDOW 0 0 56 VBottom 2
WINDOW 3 32 56 VTop 2
SYMATTR InstName R5
SYMATTR Value 4700
SYMATTR SpiceLine tol=0.5 pwr=0.1
SYMBOL res -224 272 R90
WINDOW 0 0 56 VBottom 2
WINDOW 3 32 56 VTop 2
SYMATTR InstName R6
SYMATTR Value 4700
SYMATTR SpiceLine tol=0.5 pwr=0.1
SYMBOL cap -144 32 R0
SYMATTR InstName C7
SYMATTR Value 0.33µF
SYMATTR SpiceLine V=50
SYMBOL cap -144 160 R0
SYMATTR InstName C8
SYMATTR Value 10µF
SYMATTR SpiceLine V=25
SYMBOL cap -144 288 R0
SYMATTR InstName C9
SYMATTR Value 0.33µF
SYMATTR SpiceLine V=50
SYMBOL voltage -704 -160 R180
WINDOW 0 24 96 Left 2
WINDOW 3 24 16 Left 2
WINDOW 123 0 0 Left 2
WINDOW 39 0 0 Left 2
SYMATTR InstName V1
SYMATTR Value 5
SYMBOL schottky 304 448 R0
SYMATTR InstName D3
SYMATTR Value 1N5817
SYMBOL schottky 160 -112 R270
WINDOW 0 32 32 VTop 2
WINDOW 3 0 32 VBottom 2
SYMATTR InstName D4
SYMATTR Value 1N5817
SYMBOL cap 448 -128 R0
SYMATTR InstName C1
SYMATTR Value 33pF
SYMATTR SpiceLine V=16
SYMBOL voltage -560 -160 R180
WINDOW 0 24 96 Left 2
WINDOW 3 24 16 Left 2
WINDOW 123 0 0 Left 2
WINDOW 39 0 0 Left 2
SYMATTR InstName V2
SYMATTR Value 1.8
SYMBOL PowerProducts\\LT1175 1232 544 R0
SYMATTR InstName U2
SYMBOL res 1440 512 R0
SYMATTR InstName R7
SYMATTR Value 47500
SYMATTR SpiceLine tol=0.1 pwr=0.10
SYMBOL res 1440 288 R0
SYMATTR InstName R8
SYMATTR Value 150000
SYMATTR SpiceLine tol=0.5 pwr=0.10
SYMBOL cap 1600 416 R0
SYMATTR InstName C10
SYMATTR Value 1µF
SYMATTR SpiceLine V=35
SYMBOL cap 976 480 R0
SYMATTR InstName C15
SYMATTR Value 10µF
SYMATTR SpiceLine V=25
SYMBOL bv -432 -160 R180
WINDOW 0 24 96 Left 2
WINDOW 3 24 16 Left 2
SYMATTR InstName B1
SYMATTR Value V=5+(5*white(2e6*time))
SYMBOL res 1760 656 R0
SYMATTR InstName R13
SYMATTR Value 25
SYMBOL res 1648 -512 R0
SYMATTR InstName R9
SYMATTR Value 14.3
SYMBOL cap 1056 -464 R0
SYMATTR InstName C12
SYMATTR Value 1µF
SYMBOL cap 1552 -496 R0
SYMATTR InstName C13
SYMATTR Value 10µF
SYMBOL PowerProducts\\LT1962-5 1280 -416 R0
SYMATTR InstName U3
SYMBOL cap 1440 -416 R0
SYMATTR InstName C11
SYMATTR Value 0.01µF
SYMBOL PowerProducts\\LT1962-3.3 1296 -64 R0
SYMATTR InstName U4
SYMBOL cap 1056 -112 R0
SYMATTR InstName C14
SYMATTR Value 1µF
SYMBOL res 1664 -160 R0
SYMATTR InstName R10
SYMATTR Value 14.3
SYMBOL cap 1568 -144 R0
SYMATTR InstName C16
SYMATTR Value 10µF
SYMBOL cap 1456 -64 R0
SYMATTR InstName C17
SYMATTR Value 0.01µF
TEXT 464 -216 Left 2 !.tran 1s
