Version 4
SHEET 1 1336 760
WIRE -656 -816 -832 -816
WIRE -448 -816 -576 -816
WIRE -240 -816 -448 -816
WIRE -48 -816 -240 -816
WIRE 80 -816 48 -816
WIRE 112 -816 80 -816
WIRE 848 -816 208 -816
WIRE 880 -816 848 -816
WIRE 976 -816 880 -816
WIRE 1280 -816 976 -816
WIRE 976 -768 976 -816
WIRE -832 -736 -832 -816
WIRE 32 -736 32 -768
WIRE 128 -736 128 -768
WIRE 128 -736 32 -736
WIRE 1280 -704 1280 -736
WIRE 976 -688 976 -704
WIRE -656 -560 -832 -560
WIRE -528 -560 -576 -560
WIRE -224 -560 -528 -560
WIRE 272 -560 -224 -560
WIRE 400 -560 368 -560
WIRE 432 -560 400 -560
WIRE 848 -560 848 -816
WIRE 848 -560 528 -560
WIRE 80 -528 80 -816
WIRE 80 -528 48 -528
WIRE -832 -512 -832 -560
WIRE 352 -480 352 -512
WIRE 448 -480 448 -512
WIRE 448 -480 352 -480
WIRE 48 -400 48 -528
WIRE 48 -400 -16 -400
WIRE 400 -400 400 -560
WIRE 400 -400 256 -400
WIRE -16 -384 -16 -400
WIRE 256 -384 256 -400
WIRE -448 -336 -448 -816
WIRE -352 -336 -448 -336
WIRE -448 -320 -448 -336
WIRE 400 -320 400 -400
WIRE 400 -320 320 -320
WIRE -16 -304 -16 -320
WIRE 256 -304 256 -320
WIRE -352 -272 -352 -336
WIRE -176 -272 -352 -272
WIRE 448 -272 448 -480
WIRE 448 -272 400 -272
WIRE -352 -256 -352 -272
WIRE 48 -256 48 -400
WIRE 128 -256 128 -736
WIRE 320 -256 320 -320
WIRE 400 -256 400 -272
WIRE -448 -224 -448 -256
WIRE 848 -176 848 -560
WIRE 848 -176 480 -176
WIRE -176 -160 -176 -272
WIRE -32 -160 -176 -160
WIRE -352 -144 -352 -176
WIRE -176 -144 -352 -144
WIRE -352 -112 -352 -144
WIRE 512 -64 480 -64
WIRE 720 -64 576 -64
WIRE 912 -64 800 -64
WIRE -176 -32 -176 -144
WIRE -32 -32 -176 -32
WIRE -352 16 -352 -32
WIRE -48 16 -352 16
WIRE 576 48 480 48
WIRE 704 48 640 48
WIRE 912 48 912 -64
WIRE 912 48 784 48
WIRE -352 64 -352 16
WIRE -48 96 -48 16
WIRE -32 96 -48 96
WIRE -352 176 -352 144
WIRE 912 176 912 128
WIRE -528 224 -528 -560
WIRE -384 224 -528 224
WIRE -272 224 -384 224
WIRE -32 224 -272 224
WIRE -384 240 -384 224
WIRE -272 240 -272 224
WIRE 608 272 480 272
WIRE -384 320 -384 304
WIRE -272 352 -272 320
WIRE -32 352 -272 352
WIRE -272 384 -272 352
WIRE 608 384 608 272
WIRE 608 384 480 384
WIRE -272 480 -272 464
WIRE -32 480 -272 480
WIRE 608 496 608 384
WIRE 608 496 480 496
WIRE -272 528 -272 480
WIRE 224 608 224 576
WIRE 400 608 400 576
WIRE 608 624 608 496
WIRE -272 640 -272 608
WIRE 48 720 48 576
WIRE 224 720 224 688
WIRE 400 720 400 672
WIRE 608 720 608 688
FLAG 224 720 0
FLAG -352 176 0
FLAG -272 640 0
FLAG 48 720 0
FLAG 608 720 0
FLAG -448 -224 0
FLAG -384 320 0
FLAG -832 -736 0
FLAG -832 -512 0
FLAG -16 -304 0
FLAG 256 -304 0
FLAG 976 -688 0
FLAG 400 720 0
FLAG 1280 -704 0
FLAG -240 -816 Wall
FLAG -224 -560 Battery
FLAG 880 -816 Out
FLAG 912 176 0
SYMBOL PowerProducts\\LTC4418 224 160 R0
SYMATTR InstName U1
SYMBOL res -368 -272 R0
SYMATTR InstName R2
SYMATTR Value 249000
SYMBOL res -368 -128 R0
SYMATTR InstName R5
SYMATTR Value 12400
SYMBOL res -368 48 R0
SYMATTR InstName R6
SYMATTR Value 9090
SYMBOL res -288 224 R0
SYMATTR InstName R7
SYMATTR Value 249000
SYMBOL res -288 368 R0
SYMATTR InstName R10
SYMATTR Value 12400
SYMBOL res -288 512 R0
SYMATTR InstName R11
SYMATTR Value 9090
SYMBOL cap 592 624 R0
SYMATTR InstName C1
SYMATTR Value 0.1µF
SYMBOL cap -464 -320 R0
SYMATTR InstName C2
SYMATTR Value 100nF
SYMBOL cap -400 240 R0
SYMATTR InstName C3
SYMATTR Value 100nF
SYMBOL voltage -560 -816 R90
WINDOW 0 -32 56 VBottom 2
WINDOW 3 32 56 VTop 2
WINDOW 123 0 0 Left 0
WINDOW 39 0 0 Left 0
SYMATTR InstName V1
SYMATTR Value 16.8
SYMBOL voltage -560 -560 R90
WINDOW 0 -32 56 VBottom 2
WINDOW 3 32 56 VTop 2
WINDOW 123 0 0 Left 0
WINDOW 39 0 0 Left 0
SYMATTR InstName V2
SYMATTR Value PULSE(0 16.8 0 0 0 2s 5s)
SYMBOL cap -32 -384 R0
SYMATTR InstName C4
SYMATTR Value 100µF
SYMBOL cap 240 -384 R0
SYMATTR InstName C5
SYMATTR Value 100µF
SYMBOL cap 960 -768 R0
SYMATTR InstName C6
SYMATTR Value 100µF
SYMBOL cap 384 608 R0
SYMATTR InstName C7
SYMATTR Value 1nF
SYMBOL res 1264 -832 R0
SYMATTR InstName R4
SYMATTR Value 0.7
SYMBOL pmos -48 -768 R270
SYMATTR InstName M1
SYMATTR Value RRS140P03
SYMBOL pmos 272 -512 R270
SYMATTR InstName M2
SYMATTR Value RRS140P03
SYMBOL pmos 208 -768 M270
SYMATTR InstName M3
SYMATTR Value RRS140P03
SYMBOL pmos 528 -512 M270
SYMATTR InstName M4
SYMATTR Value RRS140P03
SYMBOL res 208 592 R0
SYMATTR InstName R8
SYMATTR Value 158000
SYMBOL LED 576 -80 R90
WINDOW 0 0 32 VBottom 2
WINDOW 3 72 32 VTop 2
SYMATTR InstName D1
SYMATTR Value NSCW100
SYMBOL LED 640 32 R90
WINDOW 0 0 32 VBottom 2
WINDOW 3 72 32 VTop 2
SYMATTR InstName D2
SYMATTR Value NSCW100
SYMBOL voltage 912 32 R0
WINDOW 123 0 0 Left 0
WINDOW 39 0 0 Left 0
SYMATTR InstName V3
SYMATTR Value 5
SYMBOL res 816 -80 R90
WINDOW 0 0 56 VBottom 2
WINDOW 3 32 56 VTop 2
SYMATTR InstName R1
SYMATTR Value 2320
SYMBOL res 800 32 R90
WINDOW 0 0 56 VBottom 2
WINDOW 3 32 56 VTop 2
SYMATTR InstName R3
SYMATTR Value 2320
TEXT -856 744 Left 2 !.tran 10s
